test/data/Base_Texas_66GW.raw
@!IC, SBASE,REV,XFRRAT,NXFRAT,BASFRQ
0,   100.00, 34,     0,     1, 60.00     / PSS(R)E-34.9    FRI, OCT 31 2025  17:02


GENERAL, THRSHZ=0.0001, PQBRAK=0.7, BLOWUP=5.0
GAUSS, ITMX=100, ACCP=1.6, ACCQ=1.6, ACCM=1.0, TOL=0.0001
NEWTON, ITMXN=20, ACCN=1.0, TOLN=0.1, VCTOLQ=0.1, VCTOLV=0.00001, DVLIM=0.99, NDVFCT=0.99
ADJUST, ADJTHR=0.005, ACCTAP=1.0, TAPLIM=0.05, SWVBND=100.0, MXTPSS=99, MXSWIM=10
TYSL, ITMXTY=20, ACCTY=1.0, TOLTY=0.00001
SOLVER, FNSL, ACTAPS=0, AREAIN=0, PHSHFT=0, DCTAPS=1, SWSHNT=0, FLATST=0, VARLIM=0, NONDIV=0
RATING, 1, "RATE1 ", "RATING SET 1                    "
RATING, 2, "RATE2 ", "RATING SET 2                    "
RATING, 3, "RATE3 ", "RATING SET 3                    "
RATING, 4, "RATE4 ", "RATING SET 4                    "
RATING, 5, "RATE5 ", "RATING SET 5                    "
RATING, 6, "RATE6 ", "RATING SET 6                    "
RATING, 7, "RATE7 ", "RATING SET 7                    "
RATING, 8, "RATE8 ", "RATING SET 8                    "
RATING, 9, "RATE9 ", "RATING SET 9                    "
RATING,10, "RATE10", "RATING SET 10                   "
RATING,11, "RATE11", "RATING SET 11                   "
RATING,12, "RATE12", "RATING SET 12                   "
0 / END OF SYSTEM-WIDE DATA, BEGIN BUS DATA
@!   I,'NAME        ', BASKV, IDE,AREA,ZONE,OWNER, VM,        VA,    NVHI,   NVLO,   EVHI,   EVLO
 50310,'SOUTH TEXA~1', 345.0000,2,  34,   1,   1,1.02000,   7.9497,1.10000,0.90000,1.10000,0.90000
 50311,'COMANCHE P~1', 345.0000,2,  34,   1,   1,1.02000,   0.5234,1.10000,0.90000,1.10000,0.90000
 50312,'OAK GROVE ~1', 345.0000,2,  34,   1,   1,1.02000,  -1.5894,1.10000,0.90000,1.10000,0.90000
 50313,'LIMESTONE   ', 345.0000,2,  34,   1,   1,1.02000,   1.0444,1.10000,0.90000,1.10000,0.90000
 50314,'MARTIN LAKE ', 345.0000,2,  34,   1,   1,1.02000,   5.3741,1.10000,0.90000,1.10000,0.90000
 50315,'CEDAR BAYOU ', 345.0000,2,  34,   1,   1,1.02000,  -7.2697,1.10000,0.90000,1.10000,0.90000
 50316,'PIRKEY      ', 230.0000,2,  34,   1,   1,1.02000,   5.6392,1.10000,0.90000,1.10000,0.90000
 50317,'OKLAUNION   ', 230.0000,2,  34,   1,   1,1.02000,   4.7766,1.10000,0.90000,1.10000,0.90000
 50318,'SANDOW NO 5 ', 345.0000,2,  34,   1,   1,1.02000,   4.1180,1.10000,0.90000,1.10000,0.90000
 50319,'COLETO CREEK', 230.0000,2,  34,   1,   1,1.02000,   9.0333,1.10000,0.90000,1.10000,0.90000
 50320,'W A PARISH  ', 345.0000,3,  34,   1,   1,1.02000,   0.0000,1.10000,0.90000,1.10000,0.90000
 50321,'SABINE RIV~1', 345.0000,2,  34,   1,   1,1.02000,  -3.5655,1.10000,0.90000,1.10000,0.90000
 50322,'BIG BROWN   ', 345.0000,2,  34,   1,   1,1.02000,  -1.6901,1.10000,0.90000,1.10000,0.90000
 50323,'MONTICELLO  ', 345.0000,2,  34,   1,   1,1.02000,   5.7113,1.10000,0.90000,1.10000,0.90000
 50324,'SANDOW NO 4 ', 345.0000,2,  34,   1,   1,1.02000,   4.1058,1.10000,0.90000,1.10000,0.90000
 50325,'TOLK        ', 345.0000,2,  34,   1,   1,1.02000,  14.8581,1.10000,0.90000,1.10000,0.90000
 50326,'J K SPRUCE  ', 345.0000,2,  34,   1,   1,1.02000,   2.9589,1.10000,0.90000,1.10000,0.90000
 50327,'WELSH       ', 345.0000,2,  34,   1,   1,1.02000,   6.5793,1.10000,0.90000,1.10000,0.90000
 50328,'FAYETTE PO~1', 345.0000,2,  34,   1,   1,1.02000,  -0.8465,1.10000,0.90000,1.10000,0.90000
 50329,'GIBBONS CR~1', 345.0000,2,  34,   1,   1,1.01750,  -3.6794,1.10000,0.90000,1.10000,0.90000
 50330,'CLEAR LAKE~1', 345.0000,2,  34,   1,   1,1.01501,  -8.2356,1.10000,0.90000,1.10000,0.90000
 50331,'O W SOMMERS ', 345.0000,2,  34,   1,   1,1.02000,   2.9831,1.10000,0.90000,1.10000,0.90000
 50332,'THOMAS C F~1', 230.0000,2,  34,   1,   1,1.02000,   0.7928,1.10000,0.90000,1.10000,0.90000
 50333,'J T DEELY   ', 345.0000,2,  34,   1,   1,1.02000,   2.9780,1.10000,0.90000,1.10000,0.90000
 50334,'SAN MIGUEL  ', 230.0000,2,  34,   1,   1,1.02000,   4.3739,1.10000,0.90000,1.10000,0.90000
 50335,'HANDLEY     ', 230.0000,2,  34,   1,   1,1.00756, -10.3927,1.10000,0.90000,1.10000,0.90000
 50336,'LAKE HUBBARD', 345.0000,2,  34,   1,   1,1.00312,  -9.4771,1.10000,0.90000,1.10000,0.90000
 50337,'HARRINGTON  ', 345.0000,2,  34,   1,   1,1.02000,  13.0212,1.10000,0.90000,1.10000,0.90000
 50338,'ENNIS POWE~1', 138.0000,2,  34,   1,   1,0.99727, -10.8805,1.10000,0.90000,1.10000,0.90000
 50339,'PATTERN GU~1', 345.0000,2,  34,   1,   1,1.02000,  12.4938,1.10000,0.90000,1.10000,0.90000
 50340,'KING MOUNT~1', 345.0000,2,  34,   1,   1,1.02000,   9.3244,1.10000,0.90000,1.10000,0.90000
 50341,'LEWIS CREEK ', 138.0000,2,  34,   1,   1,1.02000,  -6.4367,1.10000,0.90000,1.10000,0.90000
 50342,'MAGIC VALL~1', 345.0000,2,  34,   1,   1,1.02000,   9.7107,1.10000,0.90000,1.10000,0.90000
 50343,'PYRON WIND~1', 345.0000,2,  34,   1,   1,1.02000,  21.3719,1.10000,0.90000,1.10000,0.90000
 50344,'GRAHAM      ', 345.0000,2,  34,   1,   1,1.02000,   5.5161,1.10000,0.90000,1.10000,0.90000
 50345,'JONES       ', 345.0000,2,  34,   1,   1,1.02000,  12.3958,1.10000,0.90000,1.10000,0.90000
 50346,'WOLF HOLLO~1', 345.0000,2,  34,   1,   1,1.01819,  -0.5674,1.10000,0.90000,1.10000,0.90000
 50347,'WISE COUNT~1', 230.0000,2,  34,   1,   1,1.02000,  -2.6478,1.10000,0.90000,1.10000,0.90000
 50348,'HAYS ENERG~1', 345.0000,2,  34,   1,   1,1.02000,   3.0116,1.10000,0.90000,1.10000,0.90000
 50349,'SWEETWATER~4', 138.0000,2,  34,   1,   1,1.02000,  24.2625,1.10000,0.90000,1.10000,0.90000
 50350,'SABINE      ', 345.0000,2,  34,   1,   1,1.02000,  -3.7714,1.10000,0.90000,1.10000,0.90000
 50351,'TRINIDAD (~1', 138.0000,2,  34,   1,   1,1.01820,  -4.2530,1.10000,0.90000,1.10000,0.90000
 50352,'BUFFALO GA~1', 345.0000,1,  34,   1,   1,1.02058,  20.5372,1.10000,0.90000,1.10000,0.90000
 50353,'CHANNEL EN~1', 230.0000,2,  34,   1,   1,0.99452,  -9.3541,1.10000,0.90000,1.10000,0.90000
 50354,'HORSE HOLL~1', 345.0000,2,  34,   1,   1,1.02000,  19.9179,1.10000,0.90000,1.10000,0.90000
 50355,'BAYTOWN EN~1', 345.0000,2,  34,   1,   1,1.02000,  -7.3903,1.10000,0.90000,1.10000,0.90000
 50356,'ROSCOE WIN~1', 230.0000,2,  34,   1,   1,1.02000,  20.6779,1.10000,0.90000,1.10000,0.90000
 50357,'PEARSALL    ', 138.0000,2,  34,   1,   1,1.02000,   1.9311,1.10000,0.90000,1.10000,0.90000
 50358,'PENASCAL W~1', 138.0000,2,  34,   1,   1,1.02000,  14.0157,1.10000,0.90000,1.10000,0.90000
 50359,'PENASCAL I~1', 230.0000,1,  34,   1,   1,1.01971,  12.8195,1.10000,0.90000,1.10000,0.90000
 50360,'EC&R PAPAL~2', 138.0000,2,  34,   1,   1,1.02000,  12.3096,1.10000,0.90000,1.10000,0.90000
 50361,'BRAZOS VAL~1', 345.0000,2,  34,   1,   1,1.01937,  -0.0413,1.10000,0.90000,1.10000,0.90000
 50362,'MESQUITE W~1', 345.0000,2,  34,   1,   1,1.02000,  13.5827,1.10000,0.90000,1.10000,0.90000
 50363,'POST OAK W~1', 345.0000,2,  34,   1,   1,1.01698,  15.8039,1.10000,0.90000,1.10000,0.90000
 50364,'EC&R PANTH~3', 345.0000,2,  34,   1,   1,1.02000,  17.6089,1.10000,0.90000,1.10000,0.90000
 50365,'VALLEY (TX) ', 345.0000,2,  34,   1,   1,1.02000,  -2.7890,1.10000,0.90000,1.10000,0.90000
 50366,'CORPUS CHR~2', 345.0000,2,  34,   1,   1,1.02000,  12.5757,1.10000,0.90000,1.10000,0.90000
 50367,'COTTONWOOD~1', 345.0000,2,  34,   1,   1,1.02000,  -2.5637,1.10000,0.90000,1.10000,0.90000
 50368,'SAND HILL   ', 230.0000,2,  34,   1,   1,1.02000,  -0.4485,1.10000,0.90000,1.10000,0.90000
 50369,'INADALE WI~1', 138.0000,2,  34,   1,   1,1.02000,  20.7139,1.10000,0.90000,1.10000,0.90000
 50370,'VICTORIA    ', 138.0000,2,  34,   1,   1,1.02000,   8.4365,1.10000,0.90000,1.10000,0.90000
 50371,'LOST PINES~1', 345.0000,2,  34,   1,   1,1.02000,   1.5526,1.10000,0.90000,1.10000,0.90000
 50372,'CHANNELVIE~1', 345.0000,2,  34,   1,   1,1.02000,  -8.0339,1.10000,0.90000,1.10000,0.90000
 50373,'NUECES BAY  ', 345.0000,2,  34,   1,   1,1.02000,  12.5286,1.10000,0.90000,1.10000,0.90000
 50374,'BARNEY M D~1', 345.0000,2,  34,   1,   1,1.02000,  13.4780,1.10000,0.90000,1.10000,0.90000
 50375,'RIO NOGALE~1', 345.0000,2,  34,   1,   1,1.02000,   2.8272,1.10000,0.90000,1.10000,0.90000
 50376,'BASTROP EN~1', 345.0000,2,  34,   1,   1,1.02000,   1.1682,1.10000,0.90000,1.10000,0.90000
 50377,'SAM BERTRON ', 345.0000,2,  34,   1,   1,1.01821,  -8.0913,1.10000,0.90000,1.10000,0.90000
 50378,'TENASKA FR~1', 345.0000,2,  34,   1,   1,1.02000,  -3.7696,1.10000,0.90000,1.10000,0.90000
 50379,'TENASKA GA~1', 345.0000,2,  34,   1,   1,1.02000,   4.0142,1.10000,0.90000,1.10000,0.90000
 50380,'WILKES      ', 345.0000,2,  34,   1,   1,1.02000,   6.4468,1.10000,0.90000,1.10000,0.90000
 50381,'DEER PARK ~1', 345.0000,2,  34,   1,   1,1.01741,  -7.9435,1.10000,0.90000,1.10000,0.90000
 50382,'FREEPORT E~2', 230.0000,2,  34,   1,   1,1.00634,  -2.1419,1.10000,0.90000,1.10000,0.90000
 50383,'BULL CREEK~1', 345.0000,1,  34,   1,   1,1.02369,  12.2772,1.10000,0.90000,1.10000,0.90000
 50384,'EC&R PAPAL~1', 138.0000,2,  34,   1,   1,1.01167,   9.6927,1.10000,0.90000,1.10000,0.90000
 50385,'CEDAR BAYO~1', 345.0000,2,  34,   1,   1,1.02000,  -7.2602,1.10000,0.90000,1.10000,0.90000
 50386,'JOHNSON CO~1', 345.0000,2,  34,   1,   1,1.00828,  -3.0163,1.10000,0.90000,1.10000,0.90000
 50387,'STRYKER CR~1', 345.0000,2,  34,   1,   1,1.02000,   4.2948,1.10000,0.90000,1.10000,0.90000
 50388,'HIDALGO EN~1', 230.0000,2,  34,   1,   1,1.02000,   9.0124,1.10000,0.90000,1.10000,0.90000
 50389,'ODESSA ECT~1', 345.0000,2,  34,   1,   1,1.02000,  12.6313,1.10000,0.90000,1.10000,0.90000
 50390,'ARTHUR VON~1', 345.0000,2,  34,   1,   1,1.01998,   2.7905,1.10000,0.90000,1.10000,0.90000
 50391,'PASADENA C~1', 345.0000,2,  34,   1,   1,0.99840,  -7.4982,1.10000,0.90000,1.10000,0.90000
 50392,'MAJOR OAK ~1', 138.0000,2,  34,   1,   1,1.02000,  -1.5308,1.10000,0.90000,1.10000,0.90000
 50393,'MUSTANG ST~1', 345.0000,2,  34,   1,   1,1.02000,  14.7743,1.10000,0.90000,1.10000,0.90000
 50394,'FRONTERA E~1', 138.0000,2,  34,   1,   1,1.02000,   9.2248,1.10000,0.90000,1.10000,0.90000
 50395,'LAMAR POWE~1', 230.0000,2,  34,   1,   1,1.02000,   6.6662,1.10000,0.90000,1.10000,0.90000
 50396,'GUADALUPE ~1', 345.0000,2,  34,   1,   1,1.02000,   2.4841,1.10000,0.90000,1.10000,0.90000
 50397,'BUFFALO GA~2', 345.0000,2,  34,   1,   1,1.02000,  19.4636,1.10000,0.90000,1.10000,0.90000
 50398,'INGLESIDE ~1', 230.0000,2,  34,   1,   1,1.02000,  12.7352,1.10000,0.90000,1.10000,0.90000
 50399,'EASTMAN CO~1', 345.0000,2,  34,   1,   1,1.02000,   4.6915,1.10000,0.90000,1.10000,0.90000
 50400,'JACK COUNTY ', 345.0000,2,  34,   1,   1,1.02000,  -1.5678,1.10000,0.90000,1.10000,0.90000
 50401,'HARRISON C~1', 345.0000,2,  34,   1,   1,1.02000,   5.6064,1.10000,0.90000,1.10000,0.90000
 50402,'MUSTANG ST~2', 138.0000,2,  34,   1,   1,1.02000,  14.5566,1.10000,0.90000,1.10000,0.90000
 50403,'FORNEY ENE~1', 345.0000,2,  34,   1,   1,1.02000,  -9.4824,1.10000,0.90000,1.10000,0.90000
 50404,'TURKEY TRA~1', 138.0000,2,  34,   1,   1,1.02000,  22.7771,1.10000,0.90000,1.10000,0.90000
 50405,'UNION CARB~1', 345.0000,1,  34,   1,   1,1.01725,   7.9767,1.10000,0.90000,1.10000,0.90000
 50406,'GREEN POWE~1', 345.0000,2,  34,   1,   1,1.02000,  -7.1803,1.10000,0.90000,1.10000,0.90000
 50407,'FREESTONE ~1', 345.0000,2,  34,   1,   1,1.02000,  -2.3049,1.10000,0.90000,1.10000,0.90000
 50408,'GREGORY PO~1', 345.0000,2,  34,   1,   1,1.02000,  13.0487,1.10000,0.90000,1.10000,0.90000
 50409,'HACKBERRY ~1', 345.0000,2,  34,   1,   1,1.02000,  10.9034,1.10000,0.90000,1.10000,0.90000
 50410,'LON C HILL  ', 138.0000,2,  34,   1,   1,1.01947,   8.4470,1.10000,0.90000,1.10000,0.90000
 50411,'WILDORADO ~1', 345.0000,2,  34,   1,   1,1.02000,  12.9206,1.10000,0.90000,1.10000,0.90000
 50412,'BRAZOS WIN~1', 138.0000,2,  34,   1,   1,1.02000,  16.5291,1.10000,0.90000,1.10000,0.90000
 50413,'BOSQUE COU~1', 230.0000,2,  34,   1,   1,1.02000,  -0.6172,1.10000,0.90000,1.10000,0.90000
 50414,'HAL C WEAV~1', 138.0000,2,  34,   1,   1,0.99283,  -3.1241,1.10000,0.90000,1.10000,0.90000
 50415,'TRENT WIND~1', 230.0000,1,  34,   1,   1,1.02050,  20.9239,1.10000,0.90000,1.10000,0.90000
 50416,'MCADOO WIN~1', 345.0000,1,  34,   1,   1,1.02323,  12.3785,1.10000,0.90000,1.10000,0.90000
 50417,'SHERBINO I~1', 345.0000,1,  34,   1,   1,1.02751,   8.2068,1.10000,0.90000,1.10000,0.90000
 50418,'LANGFORD W~1', 345.0000,2,  34,   1,   1,1.02000,   9.7854,1.10000,0.90000,1.10000,0.90000
 50419,'CEDRO HILL~1', 138.0000,2,  34,   1,   1,1.02000,   4.4032,1.10000,0.90000,1.10000,0.90000
 50420,'SWEENY COG~1', 230.0000,2,  34,   1,   1,1.02000,   2.0871,1.10000,0.90000,1.10000,0.90000
 50421,'EC&R PANTH~1', 138.0000,2,  34,   1,   1,1.02000,  14.3541,1.10000,0.90000,1.10000,0.90000
 50422,'SIM GIDEON  ', 345.0000,2,  34,   1,   1,1.02000,   1.5516,1.10000,0.90000,1.10000,0.90000
 50423,'MOUNTAIN C~1', 345.0000,2,  34,   1,   1,1.00284, -10.6046,1.10000,0.90000,1.10000,0.90000
 50424,'SWEETWATER~3', 138.0000,2,  34,   1,   1,1.02000,  23.5652,1.10000,0.90000,1.10000,0.90000
 50425,'LAREDO      ', 138.0000,2,  34,   1,   1,1.02000,   1.9345,1.10000,0.90000,1.10000,0.90000
 50426,'SCURRY COU~2', 138.0000,2,  34,   1,   1,1.02000,  18.8193,1.10000,0.90000,1.10000,0.90000
 50427,'CHAMPION W~1', 138.0000,2,  34,   1,   1,1.02000,  21.8312,1.10000,0.90000,1.10000,0.90000
 50428,'FOREST CRE~1', 138.0000,2,  34,   1,   1,1.02000,  16.5111,1.10000,0.90000,1.10000,0.90000
 50429,'EAGLE MOUN~1', 345.0000,2,  34,   1,   1,1.00539,  -6.8240,1.10000,0.90000,1.10000,0.90000
 50430,'ELBOW CREE~1', 138.0000,2,  34,   1,   1,1.02000,  15.7984,1.10000,0.90000,1.10000,0.90000
 50431,'BUFFALO GA~3', 345.0000,2,  34,   1,   1,1.01990,  19.2713,1.10000,0.90000,1.10000,0.90000
 50432,'STANTON WI~1', 230.0000,1,  34,   1,   1,1.00736,  12.8478,1.10000,0.90000,1.10000,0.90000
 50433,'SCURRY COU~1', 138.0000,2,  34,   1,   1,1.02000,  19.7069,1.10000,0.90000,1.10000,0.90000
 50434,'BARTON CHA~1', 345.0000,2,  34,   1,   1,1.01900,   3.2587,1.10000,0.90000,1.10000,0.90000
 50435,'BLACK HAWK~1', 138.0000,2,  34,   1,   1,1.00794,  11.9981,1.10000,0.90000,1.10000,0.90000
 50436,'EC&R PANTH~2', 138.0000,2,  34,   1,   1,1.02000,  16.1729,1.10000,0.90000,1.10000,0.90000
 50437,'CALLAHAN D~1', 345.0000,2,  34,   1,   1,1.02000,  19.2925,1.10000,0.90000,1.10000,0.90000
 50438,'NOBLE GREA~1', 138.0000,2,  34,   1,   1,1.02000,  21.5981,1.10000,0.90000,1.10000,0.90000
 50439,'NICHOLS     ', 345.0000,2,  34,   1,   1,1.02000,  12.9663,1.10000,0.90000,1.10000,0.90000
 50440,'MOTIVA ENT~1', 230.0000,2,  34,   1,   1,1.01876,  -4.8785,1.10000,0.90000,1.10000,0.90000
 50441,'CAPRICORN ~1', 345.0000,2,  34,   1,   1,1.02000,  18.4290,1.10000,0.90000,1.10000,0.90000
 50442,'TEXAS CITY~2', 345.0000,2,  34,   1,   1,1.01987,  -7.1876,1.10000,0.90000,1.10000,0.90000
 50443,'VICTORIA T~1', 138.0000,2,  34,   1,   1,1.01961,   7.0277,1.10000,0.90000,1.10000,0.90000
 50444,'NEWGULF CO~1', 138.0000,2,  34,   1,   1,1.01257,   0.2744,1.10000,0.90000,1.10000,0.90000
 50445,'AIR PRODUC~1', 345.0000,1,  34,   1,   1,1.01329,  -5.0968,1.10000,0.90000,1.10000,0.90000
 50446,'SOUTH TREN~1', 345.0000,1,  34,   1,   1,1.01948,  19.6714,1.10000,0.90000,1.10000,0.90000
 50447,'TXU SWEETW~1', 138.0000,2,  34,   1,   1,1.02000,  21.3872,1.10000,0.90000,1.10000,0.90000
 50448,'OYSTER CRE~1', 345.0000,2,  34,   1,   1,1.00272,  -2.1375,1.10000,0.90000,1.10000,0.90000
 50449,'FREEPORT E~1', 345.0000,2,  34,   1,   1,1.02000,  -1.0006,1.10000,0.90000,1.10000,0.90000
 50450,'SWEETWATER~2', 138.0000,2,  34,   1,   1,1.02000,  21.9840,1.10000,0.90000,1.10000,0.90000
 50451,'SAND BLUFF~1', 138.0000,2,  34,   1,   1,1.02000,  16.2955,1.10000,0.90000,1.10000,0.90000
 50452,'MORGAN CREEK', 345.0000,2,  34,   1,   1,1.02000,  23.5241,1.10000,0.90000,1.10000,0.90000
 50453,'PERMIAN BA~1', 345.0000,2,  34,   1,   1,1.02000,   9.4206,1.10000,0.90000,1.10000,0.90000
 50454,'DECORDOVA ~1', 345.0000,2,  34,   1,   1,1.02000,  -0.9011,1.10000,0.90000,1.10000,0.90000
 50455,'SAN JACINT~2', 345.0000,2,  34,   1,   1,1.01559,  -7.9586,1.10000,0.90000,1.10000,0.90000
 50456,'PARIS ENER~1', 138.0000,2,  34,   1,   1,1.02000,   4.2377,1.10000,0.90000,1.10000,0.90000
 50457,'HARDIN COU~1', 138.0000,2,  34,   1,   1,1.01675,  -5.9308,1.10000,0.90000,1.10000,0.90000
 50458,'NEWMAN      ', 138.0000,2,  34,   1,   1,1.02000, -14.6771,1.10000,0.90000,1.10000,0.90000
 50459,'SAN JACINT~1', 138.0000,2,  34,   1,   1,1.00080,  -8.3844,1.10000,0.90000,1.10000,0.90000
 50460,'HOUSTON CH~1', 230.0000,2,  34,   1,   1,1.01587,  -8.4859,1.10000,0.90000,1.10000,0.90000
 50461,'OPTIM ENER~1', 345.0000,2,  34,   1,   1,1.02000,  -8.0823,1.10000,0.90000,1.10000,0.90000
 50462,'POST WIND ~1', 138.0000,2,  34,   1,   1,1.02000,  16.1802,1.10000,0.90000,1.10000,0.90000
 50463,'RAY OLINGER ', 345.0000,2,  34,   1,   1,0.99717,  -8.1087,1.10000,0.90000,1.10000,0.90000
 50464,'NWP INDIAN~1', 138.0000,2,  34,   1,   1,1.02000,   8.6962,1.10000,0.90000,1.10000,0.90000
 50465,'BASF FREEP~1', 345.0000,1,  34,   1,   1,1.00941,  -1.3480,1.10000,0.90000,1.10000,0.90000
 50466,'COPPER      ', 138.0000,1,  34,   1,   1,1.01733, -18.1908,1.10000,0.90000,1.10000,0.90000
 50467,'SWEETWATER~5', 138.0000,2,  34,   1,   1,1.02000,  23.6814,1.10000,0.90000,1.10000,0.90000
 50468,'LLANO ESTA~1', 138.0000,1,  34,   1,   1,1.00236,  10.7458,1.10000,0.90000,1.10000,0.90000
 50469,'EXC WIND 4~1', 138.0000,2,  34,   1,   1,1.02000,  20.3762,1.10000,0.90000,1.10000,0.90000
 50470,'LAKE CREEK  ', 230.0000,2,  34,   1,   1,1.02000,  -3.5086,1.10000,0.90000,1.10000,0.90000
 50471,'MAJESTIC 1~1', 138.0000,2,  34,   1,   1,1.01201,  11.3677,1.10000,0.90000,1.10000,0.90000
 50472,'POWER STAT~1', 345.0000,2,  34,   1,   1,1.02000,  -7.1659,1.10000,0.90000,1.10000,0.90000
 50473,'WOODWARD M~1', 138.0000,2,  34,   1,   1,1.02000,  10.0694,1.10000,0.90000,1.10000,0.90000
 50474,'C R WING C~1', 138.0000,2,  34,   1,   1,1.02000,  15.9841,1.10000,0.90000,1.10000,0.90000
 50475,'BAYOU COGE~1', 230.0000,2,  34,   1,   1,0.99862,  -9.6558,1.10000,0.90000,1.10000,0.90000
 50476,'WEST TEXAS~1', 345.0000,2,  34,   1,   1,1.02000,   9.2835,1.10000,0.90000,1.10000,0.90000
 50477,'QUAIL RUN ~1', 345.0000,2,  34,   1,   1,1.02000,  12.6688,1.10000,0.90000,1.10000,0.90000
 50478,'LORAINE WI~1', 138.0000,2,  34,   1,   1,1.02000,  20.7925,1.10000,0.90000,1.10000,0.90000
 50479,'GREENS BAYOU', 345.0000,2,  34,   1,   1,1.01978,  -8.2722,1.10000,0.90000,1.10000,0.90000
 50480,'GOAT WIND LP', 345.0000,1,  34,   1,   1,1.02019,  17.9827,1.10000,0.90000,1.10000,0.90000
 50481,'R W MILLER  ', 345.0000,2,  34,   1,   1,1.01874,   2.4902,1.10000,0.90000,1.10000,0.90000
 50482,'POINT COMF~1', 345.0000,1,  34,   1,   1,1.01539,   7.5830,1.10000,0.90000,1.10000,0.90000
 50483,'SNYDER WIN~1', 138.0000,2,  34,   1,   1,1.01402,  17.6473,1.10000,0.90000,1.10000,0.90000
 50484,'SPENCER     ', 138.0000,1,  34,   1,   1,0.96201, -14.3486,1.10000,0.90000,1.10000,0.90000
 50485,'V H BRAUNIG ', 345.0000,2,  34,   1,   1,1.02000,   2.8000,1.10000,0.90000,1.10000,0.90000
 50486,'EG178 FACI~1', 138.0000,2,  34,   1,   1,1.02000,  18.9251,1.10000,0.90000,1.10000,0.90000
 50487,'WINCHESTER~1', 230.0000,1,  34,   1,   1,1.01704,  -0.5496,1.10000,0.90000,1.10000,0.90000
 50488,'SILVER STA~1', 138.0000,2,  34,   1,   1,1.02000,   5.4042,1.10000,0.90000,1.10000,0.90000
 50489,'NOTREES WI~1', 345.0000,2,  34,   1,   1,1.02000,  11.5604,1.10000,0.90000,1.10000,0.90000
 50490,'WHIRLWIND ~1', 138.0000,1,  34,   1,   1,1.01400,   8.8812,1.10000,0.90000,1.10000,0.90000
 50491,'EXELON LAP~1', 345.0000,1,  34,   1,   1,1.01423,  -8.2701,1.10000,0.90000,1.10000,0.90000
 50492,'OCOTILLO W~1', 138.0000,2,  34,   1,   1,1.02000,  15.7988,1.10000,0.90000,1.10000,0.90000
 50493,'WESTROCK (~1', 138.0000,2,  34,   1,   1,1.01442,  -5.1121,1.10000,0.90000,1.10000,0.90000
 50494,'LEON CREEK  ', 138.0000,2,  34,   1,   1,0.99472,  -1.5669,1.10000,0.90000,1.10000,0.90000
 50495,'TEXAS CITY~1', 138.0000,2,  34,   1,   1,0.99967,  -8.5180,1.10000,0.90000,1.10000,0.90000
 50496,'BUCHANAN D~1', 138.0000,2,  34,   1,   1,0.99030,  -0.2241,1.10000,0.90000,1.10000,0.90000
 50497,'T H WHARTON ', 345.0000,2,  34,   1,   1,1.00379,  -6.6365,1.10000,0.90000,1.10000,0.90000
 50498,'TY COOKE    ', 138.0000,1,  34,   1,   1,0.99331,   9.5808,1.10000,0.90000,1.10000,0.90000
 50499,'DECKER CREEK', 345.0000,2,  34,   1,   1,1.01980,   0.5136,1.10000,0.90000,1.10000,0.90000
 50500,'SHELL DEER~1', 138.0000,2,  34,   1,   1,1.00271,  -9.8759,1.10000,0.90000,1.10000,0.90000
 50501,'SILAS RAY   ', 138.0000,2,  34,   1,   1,1.01957,   1.7538,1.10000,0.90000,1.10000,0.90000
 50502,'SUNRAY WIN~1', 345.0000,1,  34,   1,   1,1.01607,  11.6471,1.10000,0.90000,1.10000,0.90000
 50503,'DANSBY      ', 138.0000,2,  34,   1,   1,1.02000,  -3.3172,1.10000,0.90000,1.10000,0.90000
 50504,'MOORE COUNTY',  69.0000,2,  34,   1,   1,1.02000,  12.0697,1.10000,0.90000,1.10000,0.90000
 50505,'PLANT X     ', 345.0000,2,  34,   1,   1,1.02000,  14.3293,1.10000,0.90000,1.10000,0.90000
 50506,'TECO CHP-1  ',  69.0000,2,  34,   1,   1,0.96024, -11.4745,1.10000,0.90000,1.10000,0.90000
 50507,'CORPUS REF~1', 138.0000,1,  34,   1,   1,1.00091,   9.9896,1.10000,0.90000,1.10000,0.90000
 50508,'ASCEND PER~1', 345.0000,1,  34,   1,   1,1.00123,  -5.6510,1.10000,0.90000,1.10000,0.90000
 50509,'TICONA POL~1', 230.0000,1,  34,   1,   1,1.00435,  10.5177,1.10000,0.90000,1.10000,0.90000
...
0 / END OF BUS DATA, BEGIN LOAD DATA
@!   I,'ID',STAT,AREA,ZONE,      PL,        QL,        IP,        IQ,        YP,        YQ, OWNER,SCALE,INTRPT,  DGENP,     DGENQ, DGENF
 50311,'1 ',   1,  34,   1,     0.000,     0.000,     0.000,     0.000,     0.000,     0.000,   1,    1,  0,     0.000,     0.000,   0
 50321,'1 ',   1,  34,   1,     0.000,     0.000,     0.000,     0.000,     0.000,     0.000,   1,    1,  0,     0.000,     0.000,   0
 50326,'1 ',   1,  34,   1,     0.000,     0.000,     0.000,     0.000,     0.000,     0.000,   1,    1,  0,     0.000,     0.000,   0
 50327,'1 ',   1,  34,   1,     0.000,     0.000,     0.000,     0.000,     0.000,     0.000,   1,    1,  0,     0.000,     0.000,   0
 50329,'1 ',   1,  34,   1,     0.000,     0.000,     0.000,     0.000,     0.000,     0.000,   1,    1,  0,     0.000,     0.000,   0
 50330,'1 ',   1,  34,   1,     0.000,     0.000,     0.000,     0.000,     0.000,     0.000,   1,    1,  0,     0.000,     0.000,   0
 50331,'1 ',   1,  34,   1,     0.000,     0.000,     0.000,     0.000,     0.000,     0.000,   1,    1,  0,     0.000,     0.000,   0
 50333,'1 ',   1,  34,   1,     0.000,     0.000,     0.000,     0.000,     0.000,     0.000,   1,    1,  0,     0.000,     0.000,   0
 50335,'1 ',   1,  34,   1,     0.000,     0.000,     0.000,     0.000,     0.000,     0.000,   1,    1,  0,     0.000,     0.000,   0
 50339,'1 ',   1,  34,   1,     0.000,     0.000,     0.000,     0.000,     0.000,     0.000,   1,    1,  0,     0.000,     0.000,   0
 50341,'1 ',   1,  34,   1,     0.000,     0.000,     0.000,     0.000,     0.000,     0.000,   1,    1,  0,     0.000,     0.000,   0
 50343,'1 ',   1,  34,   1,     0.000,     0.000,     0.000,     0.000,     0.000,     0.000,   1,    1,  0,     0.000,     0.000,   0
 50345,'1 ',   1,  34,   1,     0.000,     0.000,     0.000,     0.000,     0.000,     0.000,   1,    1,  0,     0.000,     0.000,   0
 50349,'1 ',   1,  34,   1,     0.000,     0.000,     0.000,     0.000,     0.000,     0.000,   1,    1,  0,     0.000,     0.000,   0
 50350,'1 ',   1,  34,   1,     0.000,     0.000,     0.000,     0.000,     0.000,     0.000,   1,    1,  0,     0.000,     0.000,   0
 50352,'1 ',   1,  34,   1,     0.000,     0.000,     0.000,     0.000,     0.000,     0.000,   1,    1,  0,     0.000,     0.000,   0
 50353,'1 ',   1,  34,   1,     0.000,     0.000,     0.000,     0.000,     0.000,     0.000,   1,    1,  0,     0.000,     0.000,   0
 50355,'1 ',   1,  34,   1,     0.000,     0.000,     0.000,     0.000,     0.000,     0.000,   1,    1,  0,     0.000,     0.000,   0
 50356,'1 ',   1,  34,   1,     0.000,     0.000,     0.000,     0.000,     0.000,     0.000,   1,    1,  0,     0.000,     0.000,   0
 50358,'1 ',   1,  34,   1,     0.000,     0.000,     0.000,     0.000,     0.000,     0.000,   1,    1,  0,     0.000,     0.000,   0
 50359,'1 ',   1,  34,   1,     0.000,     0.000,     0.000,     0.000,     0.000,     0.000,   1,    1,  0,     0.000,     0.000,   0
 50360,'1 ',   1,  34,   1,     0.000,     0.000,     0.000,     0.000,     0.000,     0.000,   1,    1,  0,     0.000,     0.000,   0
 50361,'1 ',   1,  34,   1,     0.000,     0.000,     0.000,     0.000,     0.000,     0.000,   1,    1,  0,     0.000,     0.000,   0
 50362,'1 ',   1,  34,   1,     0.000,     0.000,     0.000,     0.000,     0.000,     0.000,   1,    1,  0,     0.000,     0.000,   0
 50364,'1 ',   1,  34,   1,     0.000,     0.000,     0.000,     0.000,     0.000,     0.000,   1,    1,  0,     0.000,     0.000,   0
 50365,'1 ',   1,  34,   1,     0.000,     0.000,     0.000,     0.000,     0.000,     0.000,   1,    1,  0,     0.000,     0.000,   0
 50366,'1 ',   1,  34,   1,     0.000,     0.000,     0.000,     0.000,     0.000,     0.000,   1,    1,  0,     0.000,     0.000,   0
 50369,'1 ',   1,  34,   1,     0.000,     0.000,     0.000,     0.000,     0.000,     0.000,   1,    1,  0,     0.000,     0.000,   0
 50372,'1 ',   1,  34,   1,     0.000,     0.000,     0.000,     0.000,     0.000,     0.000,   1,    1,  0,     0.000,     0.000,   0
 50374,'1 ',   1,  34,   1,     0.000,     0.000,     0.000,     0.000,     0.000,     0.000,   1,    1,  0,     0.000,     0.000,   0
 50377,'1 ',   1,  34,   1,     0.000,     0.000,     0.000,     0.000,     0.000,     0.000,   1,    1,  0,     0.000,     0.000,   0
 50380,'1 ',   1,  34,   1,     0.000,     0.000,     0.000,     0.000,     0.000,     0.000,   1,    1,  0,     0.000,     0.000,   0
 50381,'1 ',   1,  34,   1,     0.000,     0.000,     0.000,     0.000,     0.000,     0.000,   1,    1,  0,     0.000,     0.000,   0
 50382,'1 ',   1,  34,   1,     0.000,     0.000,     0.000,     0.000,     0.000,     0.000,   1,    1,  0,     0.000,     0.000,   0
 50384,'1 ',   1,  34,   1,     0.000,     0.000,     0.000,     0.000,     0.000,     0.000,   1,    1,  0,     0.000,     0.000,   0
 50385,'1 ',   1,  34,   1,     0.000,     0.000,     0.000,     0.000,     0.000,     0.000,   1,    1,  0,     0.000,     0.000,   0
 50388,'1 ',   1,  34,   1,     0.000,     0.000,     0.000,     0.000,     0.000,     0.000,   1,    1,  0,     0.000,     0.000,   0
 50389,'1 ',   1,  34,   1,     0.000,     0.000,     0.000,     0.000,     0.000,     0.000,   1,    1,  0,     0.000,     0.000,   0
 50391,'1 ',   1,  34,   1,     0.000,     0.000,     0.000,     0.000,     0.000,     0.000,   1,    1,  0,     0.000,     0.000,   0
 50397,'1 ',   1,  34,   1,     0.000,     0.000,     0.000,     0.000,     0.000,     0.000,   1,    1,  0,     0.000,     0.000,   0
 50399,'1 ',   1,  34,   1,     0.000,     0.000,     0.000,     0.000,     0.000,     0.000,   1,    1,  0,     0.000,     0.000,   0
 50400,'1 ',   1,  34,   1,     0.000,     0.000,     0.000,     0.000,     0.000,     0.000,   1,    1,  0,     0.000,     0.000,   0
 50401,'1 ',   1,  34,   1,     0.000,     0.000,     0.000,     0.000,     0.000,     0.000,   1,    1,  0,     0.000,     0.000,   0
 50402,'1 ',   1,  34,   1,     0.000,     0.000,     0.000,     0.000,     0.000,     0.000,   1,    1,  0,     0.000,     0.000,   0
 50405,'1 ',   1,  34,   1,     0.000,     0.000,     0.000,     0.000,     0.000,     0.000,   1,    1,  0,     0.000,     0.000,   0
 50406,'1 ',   1,  34,   1,     0.000,     0.000,     0.000,     0.000,     0.000,     0.000,   1,    1,  0,     0.000,     0.000,   0
 50407,'1 ',   1,  34,   1,     0.000,     0.000,     0.000,     0.000,     0.000,     0.000,   1,    1,  0,     0.000,     0.000,   0
 50408,'1 ',   1,  34,   1,     0.000,     0.000,     0.000,     0.000,     0.000,     0.000,   1,    1,  0,     0.000,     0.000,   0
 50409,'1 ',   1,  34,   1,     0.000,     0.000,     0.000,     0.000,     0.000,     0.000,   1,    1,  0,     0.000,     0.000,   0
 50410,'1 ',   1,  34,   1,     0.000,     0.000,     0.000,     0.000,     0.000,     0.000,   1,    1,  0,     0.000,     0.000,   0
 50415,'1 ',   1,  34,   1,     0.000,     0.000,     0.000,     0.000,     0.000,     0.000,   1,    1,  0,     0.000,     0.000,   0
 50417,'1 ',   1,  34,   1,     0.000,     0.000,     0.000,     0.000,     0.000,     0.000,   1,    1,  0,     0.000,     0.000,   0
 50420,'1 ',   1,  34,   1,     0.000,     0.000,     0.000,     0.000,     0.000,     0.000,   1,    1,  0,     0.000,     0.000,   0
 50421,'1 ',   1,  34,   1,     0.000,     0.000,     0.000,     0.000,     0.000,     0.000,   1,    1,  0,     0.000,     0.000,   0
 50422,'1 ',   1,  34,   1,     0.000,     0.000,     0.000,     0.000,     0.000,     0.000,   1,    1,  0,     0.000,     0.000,   0
 50424,'1 ',   1,  34,   1,     0.000,     0.000,     0.000,     0.000,     0.000,     0.000,   1,    1,  0,     0.000,     0.000,   0
 50426,'1 ',   1,  34,   1,     0.000,     0.000,     0.000,     0.000,     0.000,     0.000,   1,    1,  0,     0.000,     0.000,   0
 50427,'1 ',   1,  34,   1,     0.000,     0.000,     0.000,     0.000,     0.000,     0.000,   1,    1,  0,     0.000,     0.000,   0
 50428,'1 ',   1,  34,   1,     0.000,     0.000,     0.000,     0.000,     0.000,     0.000,   1,    1,  0,     0.000,     0.000,   0
 50429,'1 ',   1,  34,   1,     0.000,     0.000,     0.000,     0.000,     0.000,     0.000,   1,    1,  0,     0.000,     0.000,   0
 50430,'1 ',   1,  34,   1,     0.000,     0.000,     0.000,     0.000,     0.000,     0.000,   1,    1,  0,     0.000,     0.000,   0
 50431,'1 ',   1,  34,   1,     0.000,     0.000,     0.000,     0.000,     0.000,     0.000,   1,    1,  0,     0.000,     0.000,   0
 50433,'1 ',   1,  34,   1,     0.000,     0.000,     0.000,     0.000,     0.000,     0.000,   1,    1,  0,     0.000,     0.000,   0
 50435,'1 ',   1,  34,   1,     0.000,     0.000,     0.000,     0.000,     0.000,     0.000,   1,    1,  0,     0.000,     0.000,   0
 50436,'1 ',   1,  34,   1,     0.000,     0.000,     0.000,     0.000,     0.000,     0.000,   1,    1,  0,     0.000,     0.000,   0
 50437,'1 ',   1,  34,   1,     0.000,     0.000,     0.000,     0.000,     0.000,     0.000,   1,    1,  0,     0.000,     0.000,   0
 50438,'1 ',   1,  34,   1,     0.000,     0.000,     0.000,     0.000,     0.000,     0.000,   1,    1,  0,     0.000,     0.000,   0
 50439,'1 ',   1,  34,   1,     0.000,     0.000,     0.000,     0.000,     0.000,     0.000,   1,    1,  0,     0.000,     0.000,   0
 50440,'1 ',   1,  34,   1,     0.000,     0.000,     0.000,     0.000,     0.000,     0.000,   1,    1,  0,     0.000,     0.000,   0
 50441,'1 ',   1,  34,   1,     0.000,     0.000,     0.000,     0.000,     0.000,     0.000,   1,    1,  0,     0.000,     0.000,   0
 50442,'1 ',   1,  34,   1,     0.000,     0.000,     0.000,     0.000,     0.000,     0.000,   1,    1,  0,     0.000,     0.000,   0
 50445,'1 ',   1,  34,   1,     0.000,     0.000,     0.000,     0.000,     0.000,     0.000,   1,    1,  0,     0.000,     0.000,   0
 50446,'1 ',   1,  34,   1,     0.000,     0.000,     0.000,     0.000,     0.000,     0.000,   1,    1,  0,     0.000,     0.000,   0
 50447,'1 ',   1,  34,   1,     0.000,     0.000,     0.000,     0.000,     0.000,     0.000,   1,    1,  0,     0.000,     0.000,   0
 50448,'1 ',   1,  34,   1,     0.000,     0.000,     0.000,     0.000,     0.000,     0.000,   1,    1,  0,     0.000,     0.000,   0
 50449,'1 ',   1,  34,   1,     0.000,     0.000,     0.000,     0.000,     0.000,     0.000,   1,    1,  0,     0.000,     0.000,   0
 50451,'1 ',   1,  34,   1,     0.000,     0.000,     0.000,     0.000,     0.000,     0.000,   1,    1,  0,     0.000,     0.000,   0
 50454,'1 ',   1,  34,   1,     0.000,     0.000,     0.000,     0.000,     0.000,     0.000,   1,    1,  0,     0.000,     0.000,   0
 50455,'1 ',   1,  34,   1,     0.000,     0.000,     0.000,     0.000,     0.000,     0.000,   1,    1,  0,     0.000,     0.000,   0
 50458,'1 ',   1,  34,   1,     0.000,     0.000,     0.000,     0.000,     0.000,     0.000,   1,    1,  0,     0.000,     0.000,   0
 50460,'1 ',   1,  34,   1,     0.000,     0.000,     0.000,     0.000,     0.000,     0.000,   1,    1,  0,     0.000,     0.000,   0
 50461,'1 ',   1,  34,   1,     0.000,     0.000,     0.000,     0.000,     0.000,     0.000,   1,    1,  0,     0.000,     0.000,   0
 50462,'1 ',   1,  34,   1,     0.000,     0.000,     0.000,     0.000,     0.000,     0.000,   1,    1,  0,     0.000,     0.000,   0
 50464,'1 ',   1,  34,   1,     0.000,     0.000,     0.000,     0.000,     0.000,     0.000,   1,    1,  0,     0.000,     0.000,   0
 50467,'1 ',   1,  34,   1,     0.000,     0.000,     0.000,     0.000,     0.000,     0.000,   1,    1,  0,     0.000,     0.000,   0
 50470,'1 ',   1,  34,   1,     0.000,     0.000,     0.000,     0.000,     0.000,     0.000,   1,    1,  0,     0.000,     0.000,   0
 50471,'1 ',   1,  34,   1,     0.000,     0.000,     0.000,     0.000,     0.000,     0.000,   1,    1,  0,     0.000,     0.000,   0
 50473,'1 ',   1,  34,   1,     0.000,     0.000,     0.000,     0.000,     0.000,     0.000,   1,    1,  0,     0.000,     0.000,   0
 50474,'1 ',   1,  34,   1,     0.000,     0.000,     0.000,     0.000,     0.000,     0.000,   1,    1,  0,     0.000,     0.000,   0
 50476,'1 ',   1,  34,   1,     0.000,     0.000,     0.000,     0.000,     0.000,     0.000,   1,    1,  0,     0.000,     0.000,   0
 50477,'1 ',   1,  34,   1,     0.000,     0.000,     0.000,     0.000,     0.000,     0.000,   1,    1,  0,     0.000,     0.000,   0
 50478,'1 ',   1,  34,   1,     0.000,     0.000,     0.000,     0.000,     0.000,     0.000,   1,    1,  0,     0.000,     0.000,   0
 50479,'1 ',   1,  34,   1,     0.000,     0.000,     0.000,     0.000,     0.000,     0.000,   1,    1,  0,     0.000,     0.000,   0
 50480,'1 ',   1,  34,   1,     0.000,     0.000,     0.000,     0.000,     0.000,     0.000,   1,    1,  0,     0.000,     0.000,   0
 50481,'1 ',   1,  34,   1,     0.000,     0.000,     0.000,     0.000,     0.000,     0.000,   1,    1,  0,     0.000,     0.000,   0
 50482,'1 ',   1,  34,   1,     0.000,     0.000,     0.000,     0.000,     0.000,     0.000,   1,    1,  0,     0.000,     0.000,   0
 50483,'1 ',   1,  34,   1,     0.000,     0.000,     0.000,     0.000,     0.000,     0.000,   1,    1,  0,     0.000,     0.000,   0
 50485,'1 ',   1,  34,   1,     0.000,     0.000,     0.000,     0.000,     0.000,     0.000,   1,    1,  0,     0.000,     0.000,   0
 50486,'1 ',   1,  34,   1,     0.000,     0.000,     0.000,     0.000,     0.000,     0.000,   1,    1,  0,     0.000,     0.000,   0
 50487,'1 ',   1,  34,   1,     0.000,     0.000,     0.000,     0.000,     0.000,     0.000,   1,    1,  0,     0.000,     0.000,   0
 50488,'1 ',   1,  34,   1,     0.000,     0.000,     0.000,     0.000,     0.000,     0.000,   1,    1,  0,     0.000,     0.000,   0
 50489,'1 ',   1,  34,   1,     0.000,     0.000,     0.000,     0.000,     0.000,     0.000,   1,    1,  0,     0.000,     0.000,   0
 50491,'1 ',   1,  34,   1,     0.000,     0.000,     0.000,     0.000,     0.000,     0.000,   1,    1,  0,     0.000,     0.000,   0
 50492,'1 ',   1,  34,   1,     0.000,     0.000,     0.000,     0.000,     0.000,     0.000,   1,    1,  0,     0.000,     0.000,   0
 50493,'1 ',   1,  34,   1,     0.000,     0.000,     0.000,     0.000,     0.000,     0.000,   1,    1,  0,     0.000,     0.000,   0
 50497,'1 ',   1,  34,   1,     0.000,     0.000,     0.000,     0.000,     0.000,     0.000,   1,    1,  0,     0.000,     0.000,   0
 50500,'1 ',   1,  34,   1,     0.000,     0.000,     0.000,     0.000,     0.000,     0.000,   1,    1,  0,     0.000,     0.000,   0
 50503,'1 ',   1,  34,   1,     0.000,     0.000,     0.000,     0.000,     0.000,     0.000,   1,    1,  0,     0.000,     0.000,   0
 50504,'1 ',   1,  34,   1,     0.000,     0.000,     0.000,     0.000,     0.000,     0.000,   1,    1,  0,     0.000,     0.000,   0
 50506,'1 ',   1,  34,   1,     0.000,     0.000,     0.000,     0.000,     0.000,     0.000,   1,    1,  0,     0.000,     0.000,   0
 50508,'1 ',   1,  34,   1,     0.000,     0.000,     0.000,     0.000,     0.000,     0.000,   1,    1,  0,     0.000,     0.000,   0
 50509,'1 ',   1,  34,   1,     0.000,     0.000,     0.000,     0.000,     0.000,     0.000,   1,    1,  0,     0.000,     0.000,   0
 50510,'1 ',   1,  34,   1,     0.000,     0.000,     0.000,     0.000,     0.000,     0.000,   1,    1,  0,     0.000,     0.000,   0
 50511,'1 ',   1,  34,   1,     0.000,     0.000,     0.000,     0.000,     0.000,     0.000,   1,    1,  0,     0.000,     0.000,   0
 50512,'1 ',   1,  34,   1,     0.000,     0.000,     0.000,     0.000,     0.000,     0.000,   1,    1,  0,     0.000,     0.000,   0
 50514,'1 ',   1,  34,   1,     0.000,     0.000,     0.000,     0.000,     0.000,     0.000,   1,    1,  0,     0.000,     0.000,   0
 50516,'1 ',   1,  34,   1,     0.000,     0.000,     0.000,     0.000,     0.000,     0.000,   1,    1,  0,     0.000,     0.000,   0
 50518,'1 ',   1,  34,   1,     0.000,     0.000,     0.000,     0.000,     0.000,     0.000,   1,    1,  0,     0.000,     0.000,   0
 50519,'1 ',   1,  34,   1,     0.000,     0.000,     0.000,     0.000,     0.000,     0.000,   1,    1,  0,     0.000,     0.000,   0
 50520,'1 ',   1,  34,   1,     0.000,     0.000,     0.000,     0.000,     0.000,     0.000,   1,    1,  0,     0.000,     0.000,   0
 50521,'1 ',   1,  34,   1,     0.000,     0.000,     0.000,     0.000,     0.000,     0.000,   1,    1,  0,     0.000,     0.000,   0
 50522,'1 ',   1,  34,   1,     0.000,     0.000,     0.000,     0.000,     0.000,     0.000,   1,    1,  0,     0.000,     0.000,   0
 50523,'1 ',   1,  34,   1,     0.000,     0.000,     0.000,     0.000,     0.000,     0.000,   1,    1,  0,     0.000,     0.000,   0
 50524,'1 ',   1,  34,   1,     0.000,     0.000,     0.000,     0.000,     0.000,     0.000,   1,    1,  0,     0.000,     0.000,   0
 50525,'1 ',   1,  34,   1,     0.000,     0.000,     0.000,     0.000,     0.000,     0.000,   1,    1,  0,     0.000,     0.000,   0
 50526,'1 ',   1,  34,   1,     0.000,     0.000,     0.000,     0.000,     0.000,     0.000,   1,    1,  0,     0.000,     0.000,   0
 50527,'1 ',   1,  34,   1,     0.000,     0.000,     0.000,     0.000,     0.000,     0.000,   1,    1,  0,     0.000,     0.000,   0
 50528,'1 ',   1,  34,   1,     0.000,     0.000,     0.000,     0.000,     0.000,     0.000,   1,    1,  0,     0.000,     0.000,   0
 50529,'1 ',   1,  34,   1,     0.000,     0.000,     0.000,     0.000,     0.000,     0.000,   1,    1,  0,     0.000,     0.000,   0
 50530,'1 ',   1,  34,   1,     0.000,     0.000,     0.000,     0.000,     0.000,     0.000,   1,    1,  0,     0.000,     0.000,   0
 50531,'1 ',   1,  34,   1,     0.000,     0.000,     0.000,     0.000,     0.000,     0.000,   1,    1,  0,     0.000,     0.000,   0
 50533,'1 ',   1,  34,   1,     0.000,     0.000,     0.000,     0.000,     0.000,     0.000,   1,    1,  0,     0.000,     0.000,   0
 50534,'1 ',   1,  34,   1,     0.000,     0.000,     0.000,     0.000,     0.000,     0.000,   1,    1,  0,     0.000,     0.000,   0
 50535,'1 ',   1,  34,   1,     0.000,     0.000,     0.000,     0.000,     0.000,     0.000,   1,    1,  0,     0.000,     0.000,   0
 50536,'1 ',   1,  34,   1,     0.000,     0.000,     0.000,     0.000,     0.000,     0.000,   1,    1,  0,     0.000,     0.000,   0
 50539,'1 ',   1,  34,   1,     0.000,     0.000,     0.000,     0.000,     0.000,     0.000,   1,    1,  0,     0.000,     0.000,   0
 50540,'1 ',   1,  34,   1,     0.000,     0.000,     0.000,     0.000,     0.000,     0.000,   1,    1,  0,     0.000,     0.000,   0
 50541,'1 ',   1,  34,   1,     0.000,     0.000,     0.000,     0.000,     0.000,     0.000,   1,    1,  0,     0.000,     0.000,   0
 50542,'1 ',   1,  34,   1,     0.000,     0.000,     0.000,     0.000,     0.000,     0.000,   1,    1,  0,     0.000,     0.000,   0
 50543,'1 ',   1,  34,   1,     0.000,     0.000,     0.000,     0.000,     0.000,     0.000,   1,    1,  0,     0.000,     0.000,   0
 50544,'1 ',   1,  34,   1,     0.000,     0.000,     0.000,     0.000,     0.000,     0.000,   1,    1,  0,     0.000,     0.000,   0
 50547,'1 ',   1,  34,   1,     0.000,     0.000,     0.000,     0.000,     0.000,     0.000,   1,    1,  0,     0.000,     0.000,   0
 50548,'1 ',   1,  34,   1,     0.000,     0.000,     0.000,     0.000,     0.000,     0.000,   1,    1,  0,     0.000,     0.000,   0
 53323,'1 ',   1,  34,   1,     8.980,     0.000,     0.000,     0.000,     0.000,    -4.660,   1,    1,  0,     0.000,     0.000,   0
 53324,'1 ',   1,  34,   1,     6.020,     0.000,     0.000,     0.000,     0.000,    -3.890,   1,    1,  0,     0.000,     0.000,   0
 53326,'1 ',   1,  34,   1,     9.320,     0.000,     0.000,     0.000,     0.000,    -5.260,   1,    1,  0,     0.000,     0.000,   0
 53327,'1 ',   1,  34,   1,    14.740,     0.000,     0.000,     0.000,     0.000,    -5.600,   1,    1,  0,     0.000,     0.000,   0
 53328,'1 ',   1,  34,   1,     3.280,     0.000,     0.000,     0.000,     0.000,    -1.990,   1,    1,  0,     0.000,     0.000,   0
 53330,'1 ',   1,  34,   1,    15.170,     0.000,     0.000,     0.000,     0.000,    -7.940,   1,    1,  0,     0.000,     0.000,   0
 53331,'1 ',   1,  34,   1,     8.650,     0.000,     0.000,     0.000,     0.000,    -3.840,   1,    1,  0,     0.000,     0.000,   0
 53332,'1 ',   1,  34,   1,    17.590,     0.000,     0.000,     0.000,     0.000,    -4.400,   1,    1,  0,     0.000,     0.000,   0
 53336,'1 ',   1,  34,   1,     6.710,     0.000,     0.000,     0.000,     0.000,    -3.170,   1,    1,  0,     0.000,     0.000,   0
 53337,'1 ',   1,  34,   1,     4.490,     0.000,     0.000,     0.000,     0.000,    -2.700,   1,    1,  0,     0.000,     0.000,   0
 53339,'1 ',   1,  34,   1,     5.370,     0.000,     0.000,     0.000,     0.000,    -1.340,   1,    1,  0,     0.000,     0.000,   0
 53340,'1 ',   1,  34,   1,    26.580,     0.000,     0.000,     0.000,     0.000,    -6.640,   1,    1,  0,     0.000,     0.000,   0
 53341,'1 ',   1,  34,   1,     5.750,     0.000,     0.000,     0.000,     0.000,    -1.440,   1,    1,  0,     0.000,     0.000,   0
 53342,'1 ',   1,  34,   1,    10.920,     0.000,     0.000,     0.000,     0.000,    -2.730,   1,    1,  0,     0.000,     0.000,   0
 53343,'1 ',   1,  34,   1,    49.570,     0.000,     0.000,     0.000,     0.000,   -12.390,   1,    1,  0,     0.000,     0.000,   0
 53344,'1 ',   1,  34,   1,    33.940,     0.000,     0.000,     0.000,     0.000,    -8.490,   1,    1,  0,     0.000,     0.000,   0
 53345,'1 ',   1,  34,   1,    53.050,     0.000,     0.000,     0.000,     0.000,   -13.260,   1,    1,  0,     0.000,     0.000,   0
 53346,'1 ',   1,  34,   1,    18.220,     0.000,     0.000,     0.000,     0.000,    -4.550,   1,    1,  0,     0.000,     0.000,   0
 53347,'1 ',   1,  34,   1,    13.720,     0.000,     0.000,     0.000,     0.000,    -3.430,   1,    1,  0,     0.000,     0.000,   0
 53348,'1 ',   1,  34,   1,     7.270,     0.000,     0.000,     0.000,     0.000,    -1.820,   1,    1,  0,     0.000,     0.000,   0
 53349,'1 ',   1,  34,   1,     6.530,     0.000,     0.000,     0.000,     0.000,    -1.630,   1,    1,  0,     0.000,     0.000,   0
 53351,'1 ',   1,  34,   1,    27.080,     0.000,     0.000,     0.000,     0.000,    -6.770,   1,    1,  0,     0.000,     0.000,   0
 53352,'1 ',   1,  34,   1,    10.720,     0.000,     0.000,     0.000,     0.000,    -2.680,   1,    1,  0,     0.000,     0.000,   0
 53353,'1 ',   1,  34,   1,     4.520,     0.000,     0.000,     0.000,     0.000,    -1.130,   1,    1,  0,     0.000,     0.000,   0
 53354,'1 ',   1,  34,   1,     6.610,     0.000,     0.000,     0.000,     0.000,    -1.650,   1,    1,  0,     0.000,     0.000,   0
 53355,'1 ',   1,  34,   1,     7.770,     0.000,     0.000,     0.000,     0.000,    -4.650,   1,    1,  0,     0.000,     0.000,   0
 53356,'1 ',   1,  34,   1,     2.480,     0.000,     0.000,     0.000,     0.000,    -1.380,   1,    1,  0,     0.000,     0.000,   0
 53358,'1 ',   1,  34,   1,     3.870,     0.000,     0.000,     0.000,     0.000,    -2.400,   1,    1,  0,     0.000,     0.000,   0
 53359,'1 ',   1,  34,   1,    12.210,     0.000,     0.000,     0.000,     0.000,    -5.350,   1,    1,  0,     0.000,     0.000,   0
 53360,'1 ',   1,  34,   1,     5.640,     0.000,     0.000,     0.000,     0.000,    -1.410,   1,    1,  0,     0.000,     0.000,   0
 53361,'1 ',   1,  34,   1,     7.770,     0.000,     0.000,     0.000,     0.000,    -3.600,   1,    1,  0,     0.000,     0.000,   0
 53362,'1 ',   1,  34,   1,     9.600,     0.000,     0.000,     0.000,     0.000,    -5.490,   1,    1,  0,     0.000,     0.000,   0
 53363,'1 ',   1,  34,   1,     3.550,     0.000,     0.000,     0.000,     0.000,    -2.040,   1,    1,  0,     0.000,     0.000,   0
 53364,'1 ',   1,  34,   1,    11.860,     0.000,     0.000,     0.000,     0.000,    -6.670,   1,    1,  0,     0.000,     0.000,   0
 53365,'1 ',   1,  34,   1,     7.160,     0.000,     0.000,     0.000,     0.000,    -3.520,   1,    1,  0,     0.000,     0.000,   0
 53367,'1 ',   1,  34,   1,     4.870,     0.000,     0.000,     0.000,     0.000,    -2.390,   1,    1,  0,     0.000,     0.000,   0
 53368,'1 ',   1,  34,   1,     2.270,     0.000,     0.000,     0.000,     0.000,    -1.440,   1,    1,  0,     0.000,     0.000,   0
 53370,'1 ',   1,  34,   1,     4.320,     0.000,     0.000,     0.000,     0.000,    -2.510,   1,    1,  0,     0.000,     0.000,   0
 53371,'1 ',   1,  34,   1,     9.600,     0.000,     0.000,     0.000,     0.000,    -4.950,   1,    1,  0,     0.000,     0.000,   0
 53372,'1 ',   1,  34,   1,     4.050,     0.000,     0.000,     0.000,     0.000,    -2.120,   1,    1,  0,     0.000,     0.000,   0
 53373,'1 ',   1,  34,   1,    20.120,     0.000,     0.000,     0.000,     0.000,    -8.620,   1,    1,  0,     0.000,     0.000,   0
 53375,'1 ',   1,  34,   1,     4.750,     0.000,     0.000,     0.000,     0.000,    -2.900,   1,    1,  0,     0.000,     0.000,   0
 53376,'1 ',   1,  34,   1,     6.300,     0.000,     0.000,     0.000,     0.000,    -3.980,   1,    1,  0,     0.000,     0.000,   0
 53378,'1 ',   1,  34,   1,    20.540,     0.000,     0.000,     0.000,     0.000,   -10.480,   1,    1,  0,     0.000,     0.000,   0
 53379,'1 ',   1,  34,   1,     6.620,     0.000,     0.000,     0.000,     0.000,     0.000,   1,    1,  0,     0.000,     0.000,   0
 53380,'1 ',   1,  34,   1,     8.510,     0.000,     0.000,     0.000,     0.000,     0.000,   1,    1,  0,     0.000,     0.000,   0
 53381,'1 ',   1,  34,   1,     5.510,     0.000,     0.000,     0.000,     0.000,     0.000,   1,    1,  0,     0.000,     0.000,   0
 53382,'1 ',   1,  34,   1,     6.960,     0.000,     0.000,     0.000,     0.000,     0.000,   1,    1,  0,     0.000,     0.000,   0
 53383,'1 ',   1,  34,   1,     2.450,     0.000,     0.000,     0.000,     0.000,     0.000,   1,    1,  0,     0.000,     0.000,   0
 53384,'1 ',   1,  34,   1,    20.020,     0.000,     0.000,     0.000,     0.000,    -8.090,   1,    1,  0,     0.000,     0.000,   0
 53388,'1 ',   1,  34,   1,    15.330,     0.000,     0.000,     0.000,     0.000,    -8.100,   1,    1,  0,     0.000,     0.000,   0
 53389,'1 ',   1,  34,   1,     7.670,     0.000,     0.000,     0.000,     0.000,    -3.990,   1,    1,  0,     0.000,     0.000,   0
 53390,'1 ',   1,  34,   1,     6.460,     0.000,     0.000,     0.000,     0.000,    -3.310,   1,    1,  0,     0.000,     0.000,   0
 53391,'1 ',   1,  34,   1,     6.100,     0.000,     0.000,     0.000,     0.000,    -2.870,   1,    1,  0,     0.000,     0.000,   0
 53392,'1 ',   1,  34,   1,     7.110,     0.000,     0.000,     0.000,     0.000,    -4.440,   1,    1,  0,     0.000,     0.000,   0
 53393,'1 ',   1,  34,   1,     7.310,     0.000,     0.000,     0.000,     0.000,    -4.490,   1,    1,  0,     0.000,     0.000,   0
 53395,'1 ',   1,  34,   1,     4.480,     0.000,     0.000,     0.000,     0.000,    -1.120,   1,    1,  0,     0.000,     0.000,   0
...
0 / END OF LOAD DATA, BEGIN FIXED SHUNT DATA
@!   I,'ID',STATUS,  GL,        BL
0 / END OF FIXED SHUNT DATA, BEGIN GENERATOR DATA
@!   I,'ID',      PG,        QG,        QT,        QB,     VS,    IREG,     MBASE,     ZR,         ZX,         RT,         XT,     GTAP,STAT, RMPCT,      PT,        PB,    O1,    F1,  O2,    F2,  O3,    F3,  O4,    F4,WMOD, WPF,NREG
 50310,'1 ',  1354.300,    32.591,   655.900,  -451.400,1.02000, 50310,   100.000, 0.00000E+0, 1.00000E+0, 0.00000E+0, 0.00000E+0,1.00000,1,  100.0,  1354.300,  1280.000,   1,1.0000
 50310,'2 ',  1354.300,    32.591,   655.900,  -451.400,1.02000, 50310,   100.000, 0.00000E+0, 1.00000E+0, 0.00000E+0, 0.00000E+0,1.00000,1,  100.0,  1354.300,  1280.000,   1,1.0000
 50311,'1 ',  1184.100,    69.906,   588.500,  -405.000,1.02000, 50311,   100.000, 0.00000E+0, 1.00000E+0, 0.00000E+0, 0.00000E+0,1.00000,1,  100.0,  1215.000,  1112.000,   1,1.0000
 50311,'2 ',  1215.000,    71.730,   588.500,  -405.000,1.02000, 50311,   100.000, 0.00000E+0, 1.00000E+0, 0.00000E+0, 0.00000E+0,1.00000,1,  100.0,  1215.000,  1103.000,   1,1.0000
 50312,'1 ',   452.430,     2.961,   267.400,  -267.400,1.02000, 50312,   100.000, 0.00000E+0, 1.00000E+0, 0.00000E+0, 0.00000E+0,1.00000,1,  100.0,   916.800,   348.000,   1,1.0000
 50313,'1 ',   441.987,    -2.772,   324.100,  -324.100,1.02000, 50313,   100.000, 0.00000E+0, 1.00000E+0, 0.00000E+0, 0.00000E+0,1.00000,1,  100.0,   893.000,   400.000,   1,1.0000
 50313,'2 ',   472.170,    -2.961,   407.600,  -407.600,1.02000, 50313,   100.000, 0.00000E+0, 1.00000E+0, 0.00000E+0, 0.00000E+0,1.00000,1,  100.0,   956.800,   400.000,   1,1.0000
 50314,'1 ',   775.295,   -20.054,   260.700,  -260.700,1.02000, 50314,   100.000, 0.00000E+0, 1.00000E+0, 0.00000E+0, 0.00000E+0,1.00000,1,  100.0,   793.200,   738.000,   1,1.0000
 50314,'2 ',   750.538,   -22.819,   260.700,  -260.700,1.02000, 50314,   100.000, 0.00000E+0, 1.00000E+0, 0.00000E+0, 0.00000E+0,1.00000,0,  100.0,   793.200,   738.000,   1,1.0000
 50314,'3 ',   746.538,   -22.819,   260.700,  -260.700,1.02000, 50314,   100.000, 0.00000E+0, 1.00000E+0, 0.00000E+0, 0.00000E+0,1.00000,0,  100.0,   793.200,   734.000,   1,1.0000
 50315,'1 ',   377.519,   111.772,   370.500,  -255.000,1.02000, 50315,   100.000, 0.00000E+0, 1.00000E+0, 0.00000E+0, 0.00000E+0,1.00000,1,  100.0,   765.000,    65.000,   1,1.0000
 50315,'2 ',   377.519,   111.772,   370.500,  -255.000,1.02000, 50315,   100.000, 0.00000E+0, 1.00000E+0, 0.00000E+0, 0.00000E+0,1.00000,1,  100.0,   765.000,    65.000,   1,1.0000
 50316,'1 ',   433.900,   141.833,   349.200,  -240.300,1.02000, 50316,   100.000, 0.00000E+0, 1.00000E+0, 0.00000E+0, 0.00000E+0,1.00000,1,  100.0,   721.000,   400.000,   1,1.0000
 50317,'1 ',   248.853,    86.506,   348.700,  -240.000,1.02000, 50317,   100.000, 0.00000E+0, 1.00000E+0, 0.00000E+0, 0.00000E+0,1.00000,1,  100.0,   720.000,   215.000,   1,1.0000
 50318,'1 ',   511.102,    24.763,   320.400,  -220.500,1.02000, 50318,   100.000, 0.00000E+0, 1.00000E+0, 0.00000E+0, 0.00000E+0,1.00000,1,  100.0,   661.500,   480.000,   1,1.0000
 50319,'1 ',   379.265,    24.015,   301.400,  -207.500,1.02000, 50319,   100.000, 0.00000E+0, 1.00000E+0, 0.00000E+0, 0.00000E+0,1.00000,1,  100.0,   622.400,   350.000,   1,1.0000
 50320,'1 ',   186.596,    66.875,   116.400,   -62.600,1.02000, 50320,   100.000, 0.00000E+0, 1.00000E+0, 0.00000E+0, 0.00000E+0,1.00000,1,  100.0,   187.800,    30.000,   1,1.0000
 50320,'2 ',   186.596,    66.875,   116.400,   -62.600,1.02000, 50320,   100.000, 0.00000E+0, 1.00000E+0, 0.00000E+0, 0.00000E+0,1.00000,1,  100.0,   187.800,    30.000,   1,1.0000
 50320,'3 ',   577.058,   206.815,   281.100,  -193.500,1.02000, 50320,   100.000, 0.00000E+0, 1.00000E+0, 0.00000E+0, 0.00000E+0,1.00000,1,  100.0,   580.500,    60.000,   1,1.0000
 50320,'4 ',   729.783,   261.551,   355.500,  -244.700,1.02000, 50320,   100.000, 0.00000E+0, 1.00000E+0, 0.00000E+0, 0.00000E+0,1.00000,1,  100.0,   734.100,   175.000,   1,1.0000
 50320,'5 ',   729.783,   261.551,   355.500,  -244.700,1.02000, 50320,   100.000, 0.00000E+0, 1.00000E+0, 0.00000E+0, 0.00000E+0,1.00000,1,  100.0,   734.100,   175.000,   1,1.0000
 50320,'6 ',   297.361,   106.573,   185.400,   -99.700,1.02000, 50320,   100.000, 0.00000E+0, 1.00000E+0, 0.00000E+0, 0.00000E+0,1.00000,1,  100.0,   299.200,    60.000,   1,1.0000
 50320,'7 ',   610.964,   218.966,   348.300,  -204.900,1.02000, 50320,   100.000, 0.00000E+0, 1.00000E+0, 0.00000E+0, 0.00000E+0,1.00000,1,  100.0,   614.600,   175.000,   1,1.0000
 50320,'8 ',   650.139,   233.007,   370.600,  -218.000,1.02000, 50320,   100.000, 0.00000E+0, 1.00000E+0, 0.00000E+0, 0.00000E+0,1.00000,1,  100.0,   654.000,   175.000,   1,1.0000
 50321,'1 ',   170.381,    39.609,   177.950,  -100.200,1.02000, 50321,   100.000, 0.00000E+0, 1.00000E+0, 0.00000E+0, 0.00000E+0,1.00000,1,  100.0,   300.550,   156.250,   1,1.0000
 50321,'2 ',   170.381,    39.609,   177.950,  -100.200,1.02000, 50321,   100.000, 0.00000E+0, 1.00000E+0, 0.00000E+0, 0.00000E+0,1.00000,1,  100.0,   300.550,   156.250,   1,1.0000
 50322,'1 ',   297.901,     3.336,   287.400,  -197.800,1.02000, 50322,   100.000, 0.00000E+0, 1.00000E+0, 0.00000E+0, 0.00000E+0,1.00000,1,  100.0,   593.400,   270.000,   1,1.0000
 50322,'2 ',   297.901,     3.336,   287.400,  -197.800,1.02000, 50322,   100.000, 0.00000E+0, 1.00000E+0, 0.00000E+0, 0.00000E+0,1.00000,1,  100.0,   593.400,   270.000,   1,1.0000
 50323,'1 ',   753.295,   114.450,   260.700,  -260.700,1.02000, 50323,   100.000, 0.00000E+0, 1.00000E+0, 0.00000E+0, 0.00000E+0,1.00000,1,  100.0,   793.200,   716.000,   1,1.0000
 50323,'2 ',   549.901,    83.548,   252.800,  -252.800,1.02000, 50323,   100.000, 0.00000E+0, 1.00000E+0, 0.00000E+0, 0.00000E+0,1.00000,1,  100.0,   593.400,   522.000,   1,1.0000
 50323,'3 ',   549.901,    83.548,   252.800,  -252.800,1.02000, 50323,   100.000, 0.00000E+0, 1.00000E+0, 0.00000E+0, 0.00000E+0,1.00000,1,  100.0,   593.400,   522.000,   1,1.0000
 50324,'1 ',   567.769,   159.777,   214.400,  -214.400,1.02000, 50324,   100.000, 0.00000E+0, 1.00000E+0, 0.00000E+0, 0.00000E+0,1.00000,1,  100.0,   590.600,   540.000,   1,1.0000
 50325,'1 ',   211.702,     0.192,   275.000,  -189.300,1.02000, 50325,   100.000, 0.00000E+0, 1.00000E+0, 0.00000E+0, 0.00000E+0,1.00000,1,  100.0,   567.900,   185.000,   1,1.0000
 50325,'2 ',   211.702,     0.192,   275.000,  -189.300,1.02000, 50325,   100.000, 0.00000E+0, 1.00000E+0, 0.00000E+0, 0.00000E+0,1.00000,1,  100.0,   567.900,   185.000,   1,1.0000
 50326,'1 ',   356.693,   230.019,   425.200,  -292.700,1.02000, 50326,   100.000, 0.00000E+0, 1.00000E+0, 0.00000E+0, 0.00000E+0,1.00000,1,  100.0,   878.000,   290.000,   1,1.0000
 50326,'2 ',   279.314,   180.120,   274.100,  -188.700,1.02000, 50326,   100.000, 0.00000E+0, 1.00000E+0, 0.00000E+0, 0.00000E+0,1.00000,1,  100.0,   566.000,   122.000,   1,1.0000
 50327,'1 ',   275.367,    12.458,   270.300,  -186.000,1.02000, 50327,   100.000, 0.00000E+0, 1.00000E+0, 0.00000E+0, 0.00000E+0,1.00000,1,  100.0,   558.000,   150.000,   1,1.0000
 50327,'2 ',   275.367,    12.458,   270.300,  -186.000,1.02000, 50327,   100.000, 0.00000E+0, 1.00000E+0, 0.00000E+0, 0.00000E+0,1.00000,1,  100.0,   558.000,   150.000,   1,1.0000
 50327,'3 ',   275.367,    12.458,   270.300,  -186.000,1.02000, 50327,   100.000, 0.00000E+0, 1.00000E+0, 0.00000E+0, 0.00000E+0,1.00000,1,  100.0,   558.000,   150.000,   1,1.0000
 50328,'1 ',   227.004,    53.358,   222.800,  -153.300,1.02000, 50328,   100.000, 0.00000E+0, 1.00000E+0, 0.00000E+0, 0.00000E+0,1.00000,1,  100.0,   460.000,   180.000,   1,1.0000
 50328,'2 ',   303.495,    71.337,   297.900,  -205.000,1.02000, 50328,   100.000, 0.00000E+0, 1.00000E+0, 0.00000E+0, 0.00000E+0,1.00000,1,  100.0,   615.000,   160.000,   1,1.0000
 50328,'3 ',   303.495,    71.337,   297.900,  -205.000,1.02000, 50328,   100.000, 0.00000E+0, 1.00000E+0, 0.00000E+0, 0.00000E+0,1.00000,1,  100.0,   615.000,   160.000,   1,1.0000
 50329,'1 ',   223.797,   219.600,   219.600,  -151.200,1.02000, 50329,   100.000, 0.00000E+0, 1.00000E+0, 0.00000E+0, 0.00000E+0,1.00000,1,  100.0,   453.500,   150.000,   1,1.0000
 50330,'1 ',    25.612,    32.200,    32.200,   -17.300,1.02000, 50330,   100.000, 0.00000E+0, 1.00000E+0, 0.00000E+0, 0.00000E+0,1.00000,1,  100.0,    51.900,     4.000,   1,1.0000
 50330,'2 ',   136.054,   113.400,   113.400,   -75.550,1.02000, 50330,   100.000, 0.00000E+0, 1.00000E+0, 0.00000E+0, 0.00000E+0,1.00000,1,  100.0,   226.600,   125.400,   1,1.0000
 50330,'3 ',   136.054,   113.400,   113.400,   -75.550,1.02000, 50330,   100.000, 0.00000E+0, 1.00000E+0, 0.00000E+0, 0.00000E+0,1.00000,1,  100.0,   226.600,   125.400,   1,1.0000
 50330,'4 ',    87.065,    62.500,    62.500,   -43.000,1.02000, 50330,   100.000, 0.00000E+0, 1.00000E+0, 0.00000E+0, 0.00000E+0,1.00000,1,  100.0,   129.000,    81.000,   1,1.0000
 50330,'5 ',    87.065,    62.500,    62.500,   -43.000,1.02000, 50330,   100.000, 0.00000E+0, 1.00000E+0, 0.00000E+0, 0.00000E+0,1.00000,1,  100.0,   129.000,    81.000,   1,1.0000
 50330,'6 ',    87.065,    62.500,    62.500,   -43.000,1.02000, 50330,   100.000, 0.00000E+0, 1.00000E+0, 0.00000E+0, 0.00000E+0,1.00000,1,  100.0,   129.000,    81.000,   1,1.0000
 50331,'1 ',   220.096,    17.114,   216.000,  -148.700,1.02000, 50331,   100.000, 0.00000E+0, 1.00000E+0, 0.00000E+0, 0.00000E+0,1.00000,1,  100.0,   446.000,    70.000,   1,1.0000
 50331,'2 ',   220.096,    17.114,   216.000,  -148.700,1.02000, 50331,   100.000, 0.00000E+0, 1.00000E+0, 0.00000E+0, 0.00000E+0,1.00000,1,  100.0,   446.000,    70.000,   1,1.0000
 50332,'1 ',   220.096,   121.530,   216.000,  -148.700,1.02000, 50332,   100.000, 0.00000E+0, 1.00000E+0, 0.00000E+0, 0.00000E+0,1.00000,1,  100.0,   446.000,    95.000,   1,1.0000
 50333,'1 ',   220.096,    79.696,   216.000,  -148.700,1.02000, 50333,   100.000, 0.00000E+0, 1.00000E+0, 0.00000E+0, 0.00000E+0,1.00000,1,  100.0,   446.000,   125.000,   1,1.0000
 50333,'2 ',   239.835,    86.843,   235.400,  -162.000,1.02000, 50333,   100.000, 0.00000E+0, 1.00000E+0, 0.00000E+0, 0.00000E+0,1.00000,1,  100.0,   486.000,   125.000,   1,1.0000
 50334,'1 ',   269.278,    62.319,   198.600,  -136.700,1.02000, 50334,   100.000, 0.00000E+0, 1.00000E+0, 0.00000E+0, 0.00000E+0,1.00000,1,  100.0,   410.000,   250.000,   1,1.0000
 50335,'1 ',   141.394,   207.300,   207.300,  -207.300,1.02000, 50335,   100.000, 0.00000E+0, 1.00000E+0, 0.00000E+0, 0.00000E+0,1.00000,1,  100.0,   455.000,   120.000,   1,1.0000
 50335,'2 ',   141.394,   207.300,   207.300,  -207.300,1.02000, 50335,   100.000, 0.00000E+0, 1.00000E+0, 0.00000E+0, 0.00000E+0,1.00000,1,  100.0,   455.000,   120.000,   1,1.0000
 50335,'3 ',    69.033,   303.600,   303.600,  -134.900,1.02000, 50335,   100.000, 0.00000E+0, 1.00000E+0, 0.00000E+0, 0.00000E+0,1.00000,1,  100.0,   404.800,    50.000,   1,1.0000
 50336,'1 ',   488.967,   257.200,   257.200,  -177.000,1.02000, 50336,   100.000, 0.00000E+0, 1.00000E+0, 0.00000E+0, 0.00000E+0,1.00000,1,  100.0,   531.000,   464.000,   1,1.0000
 50336,'2 ',   371.643,   192.000,   192.000,  -132.200,1.02000, 50336,   100.000, 0.00000E+0, 1.00000E+0, 0.00000E+0, 0.00000E+0,1.00000,1,  100.0,   396.500,   353.000,   1,1.0000
 50337,'1 ',   179.927,    39.198,   174.400,  -120.000,1.02000, 50337,   100.000, 0.00000E+0, 1.00000E+0, 0.00000E+0, 0.00000E+0,1.00000,1,  100.0,   360.000,   163.000,   1,1.0000
 50337,'2 ',   179.927,    39.198,   174.400,  -120.000,1.02000, 50337,   100.000, 0.00000E+0, 1.00000E+0, 0.00000E+0, 0.00000E+0,1.00000,1,  100.0,   360.000,   163.000,   1,1.0000
...